clock {
     timezone EST+5EDT;
     starttime '2009-07-21 00:00:00';
     //stoptime '2009-07-23 00:01:00';
     stoptime '2009-07-22 00:00:00';
}

#set profiler=1;
#set double_format=%+.12lg
#set randomseed=10;
#set relax_naming_rules=1;
#set minimum_timestep=60;
#include "water_and_setpoint_schedule_v3.glm";

#include "appliance_schedules.glm";
#include "max_capacity_reference_bid_quantity.glm";

module market;
module tape;
module connection;
module climate;
module residential {
     implicit_enduses NONE;
};
module powerflow {
     solver_method FBS;
     NR_iteration_limit 100;
};

class player {
     double value;
}
object player {
     name phase_A_load;
     file phase_A.player;
     loop 1;
}
object player {
     name phase_B_load;
     file phase_B.player;
     loop 1;
}
object player {
     name phase_C_load;
     file phase_C.player;
     loop 1;
}
object csv_reader {
     name CSVREADER;
     filename "ColumbusWeather2009_2a.csv";
}

object climate {
     name "Minneapolis MN";
     tmyfile "ColumbusWeather2009_2a.csv";
     reader CSVREADER;
};

class auction {
     double day_ahead_average;
 	 double day_ahead_std;
 	 double current_price_mean_24h;
     double current_price_stdev_24h;
}
object auction {
     name Market2;
     unit kW;
     period 300;
     price_cap 3.78;
     transaction_log_file log_file_F1_250_house.csv;
     curve_log_file bid_curve_F1_250_house.csv;
     curve_log_info EXTRA;


     capacity_reference_object F1_Transformer1;
     capacity_reference_property power_out_real;
     // max_capacity_reference_bid_quantity 1125; //a power limit of 1125 kW
     max_capacity_reference_bid_quantity 1500; //a power limit of 1125 kW
     //max_capacity_reference_bid_quantity max_capacity_reference_bid_quantity_attack;


     object player {
		 property capacity_reference_bid_price;
		 file AEP_RT_LMP.player;
		 loop 0;
	 };
     object recorder {
          property capacity_reference_bid_price, current_market.clearing_price, current_market.clearing_quantity;
          limit 100000000;
          interval 60;
          file baseprice_clearedprice_clearedquantity.csv;
     };



     init_price 0.042676;
     init_stdev 0.020000;
     use_future_mean_price FALSE;
     warmup 0;
}
object fncs_msg {
     name F1_250_house;
 	   parent Market2;
     route "function:controller/submit_bid_state -> auction/submit_bid_state";
     option "transport:hostname localhost, port 5570";
     configure F1_250_house.txt;
}
object transformer_configuration {
     name substation_config;
     connect_type WYE_WYE;
     install_type PADMOUNT;
     primary_voltage 345000 V;
     secondary_voltage 7200 V;
     power_rating 3750; // Can be set as 4500 kW
     powerA_rating 1250; //Can be set as 1500 kW
     powerB_rating 1250;//Can be set as 1500 kW
     powerC_rating 1250;//Can be set as 1500 kW
     impedance 0.0015+0.00675j;
}

object transformer_configuration {
     name default_transformer_A;
     connect_type SINGLE_PHASE_CENTER_TAPPED;
     install_type PADMOUNT;
     primary_voltage 7200 V;
     secondary_voltage 124 V;
     power_rating 1250;
     powerA_rating 1250;
     impedance 0.015+0.0675j;
}

object transformer_configuration {
     name default_transformer_B;
     connect_type SINGLE_PHASE_CENTER_TAPPED;
     install_type PADMOUNT;
     primary_voltage 7200 V;
     secondary_voltage 124 V;
     power_rating 1250;
     powerB_rating 1250;
     impedance 0.015+0.0675j;
}

object transformer_configuration {
     name default_transformer_C;
     connect_type SINGLE_PHASE_CENTER_TAPPED;
     install_type PADMOUNT;
     primary_voltage 7200 V;
     secondary_voltage 124 V;
     power_rating 1250;
     powerC_rating 1250;
     impedance 0.015+0.0675j;
}

object triplex_line_conductor {
     name Name_1_0_AA_triplex;
     resistance 0.57;
     geometric_mean_radius 0.0111;
}

object triplex_line_configuration {
     name TLCFG;
     conductor_1 Name_1_0_AA_triplex;
     conductor_2 Name_1_0_AA_triplex;
     conductor_N Name_1_0_AA_triplex;
     insulation_thickness 0.08;
     diameter 0.368;
}

object substation {
     bustype SWING;
     name ROOT;
     phases ABCN;
     reference_phase PHASE_A;
     positive_sequence_voltage 345000.0+0.0j;
     nominal_voltage 345000;
}

object transformer {
     phases ABCN;
     groupid F1_Network_Trans;
     name F1_Transformer1;
     from ROOT;
     to F1_transformer_meter;
     configuration substation_config;
     object recorder {
          property power_out_real;
          limit 100000000;
          interval 60;
          file totalload.csv;
     };
}

object meter {
     name F1_transformer_meter;
     phases ABCN;
     nominal_voltage 7200;
}

object load {
     name unresp_load;
     nominal_voltage 7200;
     phases ABCN;
     parent F1_transformer_meter;
     constant_power_A_real phase_A_load.value*0.2;
     constant_power_B_real phase_B_load.value*0.2;
     constant_power_C_real phase_C_load.value*0.2;
};

object transformer {
     name F1_center_tap_transformer_A;
     phases AS;
     from F1_transformer_meter;
     to F1_triplex_node_A;
     configuration default_transformer_A;
}

object transformer {
     name F1_center_tap_transformer_B;
     phases BS;
     from F1_transformer_meter;
     to F1_triplex_node_B;
     configuration default_transformer_B;
}

object transformer {
     name F1_center_tap_transformer_C;
     phases CS;
     from F1_transformer_meter;
     to F1_triplex_node_C;
     configuration default_transformer_C;
}

object triplex_meter {
     name F1_triplex_node_A;
     phases AS;
     nominal_voltage 124.00;
}

object triplex_meter {
     name F1_triplex_node_B;
     phases BS;
     nominal_voltage 124.00;
}

object triplex_meter {
     name F1_triplex_node_C;
     phases CS;
     nominal_voltage 124.00;
}

object triplex_line {
     from F1_triplex_node_A;
     to F1_tpm_flatrate_A1;
     groupid F1_Triplex_Line;
     phases AS;
     length 10;
     configuration TLCFG;
}

object triplex_meter {
     nominal_voltage 124;
     phases AS;
     name F1_tpm_flatrate_A1;
     groupid F1_flatrate_meter;
}

object triplex_meter {
     nominal_voltage 124;
     phases AS;
     name F1_tpm_rt_A1;
     groupid F1_rt_meter;
     parent F1_tpm_flatrate_A1;
}

object house {
     name H_1;
     //Residential_2
     parent F1_tpm_rt_A1;
     schedule_skew -685;
     Rroof 33.69;
     Rwall 17.71;
     Rfloor 17.02;
     Rdoors 5;
     Rwindows 1.81;
     airchange_per_hour 0.80;
     hvac_power_factor 0.97;
     cooling_system_type ELECTRIC;
     heating_system_type GAS;
     fan_type ONE_SPEED;
     hvac_breaker_rating 200;
     total_thermal_mass_per_floor_area 3.01;
     motor_efficiency AVERAGE;
     motor_model BASIC;
     cooling_COP 3.90;
     floor_area 1040;
     number_of_doors 2;
     air_temperature 71.9;
     mass_temperature 71.9;
     heating_setpoint heating7*0.985+2.01;

     object controller {
          name C250_1;
          market Market2;
          schedule_skew -685;
          bid_mode PROXY;
          proxy_average 0.042676;
          proxy_standard_deviation 0.020000;
          proxy_market_id 1;
          proxy_clear_price 0.042676;
          proxy_price_cap 2.5; //proxy_price_cap 3.78;
          proxy_market_unit kW;
          proxy_initial_price 0.042676;
          // bid_delay 57;
          control_mode RAMP;
          base_setpoint cooling4*1.035+3.08;
          setpoint cooling_setpoint;
          target air_temperature;
          deadband thermostat_deadband;
          use_predictive_bidding TRUE;
          average_target current_price_mean_24h;
          standard_deviation_target current_price_stdev_24h;
          period 300;
          demand last_cooling_load;
           range_high 6.000;
           range_low -3.000;
           ramp_high 2.400;
           ramp_low 2.400;
          total total_load;
          load hvac_load;
          state power_state;
     };

     object ZIPload {
          schedule_skew -685;
          base_power LIGHTS*0.8709;
          power_fraction 0.000000;
          impedance_fraction 1.000000;
          current_fraction 0.000000;
          power_pf 0.000;
          current_pf 0.000;
          impedance_pf 1.000;
          heat_fraction 0.70;
     };
     object ZIPload {
          schedule_skew -685;
          base_power CLOTHESWASHER*0.7763;
          power_fraction 1.000000;
          impedance_fraction 0.000000;
          current_fraction 0.000000;
          power_pf 0.970;
          current_pf 0.970;
          impedance_pf 0.970;
          heat_fraction 0.86;
     };
     object ZIPload {
          schedule_skew -685;
          base_power REFRIGERATOR*1.0019;
          power_fraction 1.000000;
          impedance_fraction 0.000000;
          current_fraction 0.000000;
          power_pf 0.970;
          current_pf 0.970;
          impedance_pf 0.970;
          heat_fraction 0.77;
     };
     object ZIPload {
          schedule_skew -685;
          base_power DRYER*0.9110;
          power_fraction 0.100000;
          impedance_fraction 0.800000;
          current_fraction 0.100000;
          power_pf 0.900;
          current_pf 0.900;
          impedance_pf 1.000;
          heat_fraction 0.80;
     };
     object ZIPload {
          schedule_skew -685;
          base_power FREEZER*1.0590;
          power_fraction 1.000000;
          impedance_fraction 0.000000;
          current_fraction 0.000000;
          power_pf 0.970;
          current_pf 0.970;
          impedance_pf 0.970;
          heat_fraction 0.86;
     };
     object ZIPload {
          schedule_skew -685;
          base_power RANGE*0.6381;
          power_fraction 0.000000;
          impedance_fraction 1.000000;
          current_fraction 0.000000;
          power_pf 0.000;
          current_pf 0.000;
          impedance_pf 1.000;
          heat_fraction 0.94;
     };
     object ZIPload {
          schedule_skew -685;
          base_power MICROWAVE*1.0063;
          power_fraction 1.000000;
          impedance_fraction 0.000000;
          current_fraction 0.000000;
          power_pf 0.970;
          current_pf 0.970;
          impedance_pf 0.970;
          heat_fraction 0.67;
     };
}

object triplex_line {
     from F1_triplex_node_A;
     to F1_tpm_flatrate_A2;
     groupid F1_Triplex_Line;
     phases AS;
     length 10;
     configuration TLCFG;
}

object triplex_meter {
     nominal_voltage 124;
     phases AS;
     name F1_tpm_flatrate_A2;
     groupid F1_flatrate_meter;
}

object triplex_meter {
     nominal_voltage 124;
     phases AS;
     name F1_tpm_rt_A2;
     groupid F1_rt_meter;
     parent F1_tpm_flatrate_A2;
}

object house {
     name H_2;
     //Residential_1
     parent F1_tpm_rt_A2;
     schedule_skew -97;
     Rroof 21.61;
     Rwall 9.30;
     Rfloor 11.38;
     Rdoors 3;
     Rwindows 1.56;
     airchange_per_hour 1.02;
     hvac_power_factor 0.97;
     cooling_system_type ELECTRIC;
     heating_system_type GAS;
     fan_type ONE_SPEED;
     hvac_breaker_rating 200;
     total_thermal_mass_per_floor_area 4.59;
     motor_efficiency AVERAGE;
     motor_model BASIC;
     cooling_COP 3.75;
     floor_area 1438;
     number_of_doors 2;
     air_temperature 71.9;
     mass_temperature 71.9;
     heating_setpoint heating7*0.965+2.34;

     object controller {
          name C250_2;
          market Market2;
          schedule_skew -97;
          bid_mode PROXY;
          proxy_average 0.042676;
          proxy_standard_deviation 0.020000;
          proxy_market_id 1;
          proxy_clear_price 0.042676;
          proxy_price_cap 3.78;
          proxy_market_unit kW;
          proxy_initial_price 0.042676;
          // bid_delay 63;
          control_mode RAMP;
          base_setpoint cooling4*0.979+5.10;
          setpoint cooling_setpoint;
          target air_temperature;
          deadband thermostat_deadband;
          use_predictive_bidding TRUE;
          average_target current_price_mean_24h;
          standard_deviation_target current_price_stdev_24h;
          period 300;
          demand last_cooling_load;
           range_high 6.000;
           range_low -3.000;
           ramp_high 2.400;
           ramp_low 2.400;
          total total_load;
          load hvac_load;
          state power_state;
     };

     object ZIPload {
          schedule_skew -97;
          base_power LIGHTS*1.8020;
          power_fraction 0.600000;
          impedance_fraction 0.400000;
          current_fraction 0.000000;
          power_pf -0.780;
          current_pf 0.420;
          impedance_pf -0.880;
          heat_fraction 0.89;
     };
}

object triplex_line {
     from F1_triplex_node_A;
     to F1_tpm_flatrate_A3;
     groupid F1_Triplex_Line;
     phases AS;
     length 10;
     configuration TLCFG;
}

object triplex_meter {
     nominal_voltage 124;
     phases AS;
     name F1_tpm_flatrate_A3;
     groupid F1_flatrate_meter;
}

object triplex_meter {
     nominal_voltage 124;
     phases AS;
     name F1_tpm_rt_A3;
     groupid F1_rt_meter;
     parent F1_tpm_flatrate_A3;
}

object house {
     name H_3;
     //Residential_3
     parent F1_tpm_rt_A3;
     schedule_skew -481;
     Rroof 18.58;
     Rwall 11.08;
     Rfloor 11.36;
     Rdoors 3;
     Rwindows 0.91;
     airchange_per_hour 0.97;
     hvac_power_factor 0.97;
     cooling_system_type ELECTRIC;
     heating_system_type GAS;
     fan_type ONE_SPEED;
     hvac_breaker_rating 200;
     total_thermal_mass_per_floor_area 3.64;
     motor_efficiency AVERAGE;
     motor_model BASIC;
     cooling_COP 3.22;
     floor_area 3176;
     number_of_doors 4;
     air_temperature 71.2;
     mass_temperature 71.2;
     heating_setpoint heating8*1.021+2.25;

     object controller {
          name C250_3;
          market Market2;
          schedule_skew -481;
          bid_mode PROXY;
          proxy_average 0.042676;
          proxy_standard_deviation 0.020000;
          proxy_market_id 1;
          proxy_clear_price 0.042676;
          proxy_price_cap 3.78;
          proxy_market_unit kW;
          proxy_initial_price 0.042676;
          // bid_delay 63;
          control_mode RAMP;
          base_setpoint cooling1*0.957+4.82;
          setpoint cooling_setpoint;
          target air_temperature;
          deadband thermostat_deadband;
          use_predictive_bidding TRUE;
          average_target current_price_mean_24h;
          standard_deviation_target current_price_stdev_24h;
          period 300;
          demand last_cooling_load;
           range_high 0.000;
           range_low 0.000;
           ramp_high 3.000;
           ramp_low 3.000;
          total total_load;
          load hvac_load;
          state power_state;
     };

     object ZIPload {
          schedule_skew -481;
          base_power LIGHTS*3.3714;
          power_fraction 0.000000;
          impedance_fraction 1.000000;
          current_fraction 0.000000;
          power_pf 0.000;
          current_pf 0.000;
          impedance_pf 1.000;
          heat_fraction 0.93;
     };
     object ZIPload {
          schedule_skew -481;
          base_power CLOTHESWASHER*0.7121;
          power_fraction 1.000000;
          impedance_fraction 0.000000;
          current_fraction 0.000000;
          power_pf 0.970;
          current_pf 0.970;
          impedance_pf 0.970;
          heat_fraction 0.65;
     };
     object ZIPload {
          schedule_skew -481;
          base_power REFRIGERATOR*1.4581;
          power_fraction 1.000000;
          impedance_fraction 0.000000;
          current_fraction 0.000000;
          power_pf 0.970;
          current_pf 0.970;
          impedance_pf 0.970;
          heat_fraction 0.79;
     };
     object ZIPload {
          schedule_skew -481;
          base_power DRYER*0.6684;
          power_fraction 0.100000;
          impedance_fraction 0.800000;
          current_fraction 0.100000;
          power_pf 0.900;
          current_pf 0.900;
          impedance_pf 1.000;
          heat_fraction 0.80;
     };
     object ZIPload {
          schedule_skew -481;
          base_power FREEZER*1.6326;
          power_fraction 1.000000;
          impedance_fraction 0.000000;
          current_fraction 0.000000;
          power_pf 0.970;
          current_pf 0.970;
          impedance_pf 0.970;
          heat_fraction 0.84;
     };
     object ZIPload {
          schedule_skew -481;
          base_power RANGE*0.8307;
          power_fraction 0.000000;
          impedance_fraction 1.000000;
          current_fraction 0.000000;
          power_pf 0.000;
          current_pf 0.000;
          impedance_pf 1.000;
          heat_fraction 0.71;
     };
     object ZIPload {
          schedule_skew -481;
          base_power MICROWAVE*1.3891;
          power_fraction 1.000000;
          impedance_fraction 0.000000;
          current_fraction 0.000000;
          power_pf 0.970;
          current_pf 0.970;
          impedance_pf 0.970;
          heat_fraction 0.64;
     };
}

object triplex_line {
     from F1_triplex_node_A;
     to F1_tpm_flatrate_A4;
     groupid F1_Triplex_Line;
     phases AS;
     length 10;
     configuration TLCFG;
}

object triplex_meter {
     nominal_voltage 124;
     phases AS;
     name F1_tpm_flatrate_A4;
     groupid F1_flatrate_meter;
}

object triplex_meter {
     nominal_voltage 124;
     phases AS;
     name F1_tpm_rt_A4;
     groupid F1_rt_meter;
     parent F1_tpm_flatrate_A4;
}

object house {
     name H_4;
     //Residential_1
     parent F1_tpm_rt_A4;
     schedule_skew 1997;
     Rroof 16.68;
     Rwall 11.39;
     Rfloor 11.98;
     Rdoors 3;
     Rwindows 1.08;
     airchange_per_hour 0.81;
     hvac_power_factor 0.97;
     cooling_system_type ELECTRIC;
     heating_system_type GAS;
     fan_type ONE_SPEED;
     hvac_breaker_rating 200;
     total_thermal_mass_per_floor_area 4.35;
     motor_efficiency AVERAGE;
     motor_model BASIC;
     cooling_COP 3.18;
     floor_area 618;
     number_of_doors 1;
     air_temperature 71.7;
     mass_temperature 71.7;
     heating_setpoint heating3*0.955+0.35;

     object controller {
          name C250_4;
          market Market2;
          schedule_skew 1997;
          bid_mode PROXY;
          proxy_average 0.042676;
          proxy_standard_deviation 0.020000;
          proxy_market_id 1;
          proxy_clear_price 0.042676;
          proxy_price_cap 3.78;
          proxy_market_unit kW;
          proxy_initial_price 0.042676;
          // bid_delay 54;
          control_mode RAMP;
          base_setpoint cooling4*0.979+3.95;
          setpoint cooling_setpoint;
          target air_temperature;
          deadband thermostat_deadband;
          use_predictive_bidding TRUE;
          average_target current_price_mean_24h;
          standard_deviation_target current_price_stdev_24h;
          period 300;
          demand last_cooling_load;
           range_high 4.000;
           range_low -2.000;
           ramp_high 2.600;
           ramp_low 2.600;
          total total_load;
          load hvac_load;
          state power_state;
     };

     object ZIPload {
          schedule_skew 1997;
          base_power LIGHTS*1.7649;
          power_fraction 0.600000;
          impedance_fraction 0.400000;
          current_fraction 0.000000;
          power_pf -0.780;
          current_pf 0.420;
          impedance_pf -0.880;
          heat_fraction 0.79;
     };
}

object triplex_line {
     from F1_triplex_node_A;
     to F1_tpm_flatrate_A5;
     groupid F1_Triplex_Line;
     phases AS;
     length 10;
     configuration TLCFG;
}

object triplex_meter {
     nominal_voltage 124;
     phases AS;
     name F1_tpm_flatrate_A5;
     groupid F1_flatrate_meter;
}

object triplex_meter {
     nominal_voltage 124;
     phases AS;
     name F1_tpm_rt_A5;
     groupid F1_rt_meter;
     parent F1_tpm_flatrate_A5;
}

object house {
     name H_5;
     //Residential_1
     parent F1_tpm_rt_A5;
     schedule_skew -2380;
     Rroof 17.77;
     Rwall 8.67;
     Rfloor 10.59;
     Rdoors 3;
     Rwindows 1.14;
     airchange_per_hour 1.16;
     hvac_power_factor 0.97;
     cooling_system_type ELECTRIC;
     heating_system_type GAS;
     fan_type ONE_SPEED;
     hvac_breaker_rating 200;
     total_thermal_mass_per_floor_area 4.90;
     motor_efficiency AVERAGE;
     motor_model BASIC;
     cooling_COP 2.82;
     floor_area 746;
     number_of_doors 1;
     air_temperature 69.5;
     mass_temperature 69.5;
     heating_setpoint heating2*1.044+0.14;

     object controller {
          name C250_5;
          market Market2;
          schedule_skew -2380;
          bid_mode PROXY;
          proxy_average 0.042676;
          proxy_standard_deviation 0.020000;
          proxy_market_id 1;
          proxy_clear_price 0.042676;
          proxy_price_cap 3.78;
          proxy_market_unit kW;
          proxy_initial_price 0.042676;
          // bid_delay 64;
          control_mode RAMP;
          base_setpoint cooling6*0.982+4.46;
          setpoint cooling_setpoint;
          target air_temperature;
          deadband thermostat_deadband;
          use_predictive_bidding TRUE;
          average_target current_price_mean_24h;
          standard_deviation_target current_price_stdev_24h;
          period 300;
          demand last_cooling_load;
           range_high 2.000;
           range_low -1.000;
           ramp_high 2.800;
           ramp_low 2.800;
          total total_load;
          load hvac_load;
          state power_state;
     };

     object ZIPload {
          schedule_skew -2380;
          base_power LIGHTS*1.6132;
          power_fraction 0.600000;
          impedance_fraction 0.400000;
          current_fraction 0.000000;
          power_pf -0.780;
          current_pf 0.420;
          impedance_pf -0.880;
          heat_fraction 0.72;
     };
}

object triplex_line {
     from F1_triplex_node_A;
     to F1_tpm_flatrate_A6;
     groupid F1_Triplex_Line;
     phases AS;
     length 10;
     configuration TLCFG;
}

object triplex_meter {
     nominal_voltage 124;
     phases AS;
     name F1_tpm_flatrate_A6;
     groupid F1_flatrate_meter;
}

object triplex_meter {
     nominal_voltage 124;
     phases AS;
     name F1_tpm_rt_A6;
     groupid F1_rt_meter;
     parent F1_tpm_flatrate_A6;
}

object house {
     name H_6;
     //Residential_2
     parent F1_tpm_rt_A6;
     schedule_skew -2502;
     Rroof 32.04;
     Rwall 18.56;
     Rfloor 13.84;
     Rdoors 5;
     Rwindows 1.95;
     airchange_per_hour 1.20;
     hvac_power_factor 0.97;
     cooling_system_type ELECTRIC;
     heating_system_type GAS;
     fan_type ONE_SPEED;
     hvac_breaker_rating 200;
     total_thermal_mass_per_floor_area 4.79;
     motor_efficiency AVERAGE;
     motor_model BASIC;
     cooling_COP 3.60;
     floor_area 798;
     number_of_doors 1;
     air_temperature 68.5;
     mass_temperature 68.5;
     heating_setpoint heating1*0.953+0.60;

     object controller {
          name C250_6;
          market Market2;
          schedule_skew -2502;
          bid_mode PROXY;
          proxy_average 0.042676;
          proxy_standard_deviation 0.020000;
          proxy_market_id 1;
          proxy_clear_price 0.042676;
          proxy_price_cap 3.78;
          proxy_market_unit kW;
          proxy_initial_price 0.042676;
          // bid_delay 33;
          control_mode RAMP;
          base_setpoint cooling8*1.033+3.04;
          setpoint cooling_setpoint;
          target air_temperature;
          deadband thermostat_deadband;
          use_predictive_bidding TRUE;
          average_target current_price_mean_24h;
          standard_deviation_target current_price_stdev_24h;
          period 300;
          demand last_cooling_load;
           range_high 4.000;
           range_low -2.000;
           ramp_high 2.600;
           ramp_low 2.600;
          total total_load;
          load hvac_load;
          state power_state;
     };

     object ZIPload {
          schedule_skew -2502;
          base_power LIGHTS*1.7078;
          power_fraction 0.600000;
          impedance_fraction 0.400000;
          current_fraction 0.000000;
          power_pf -0.780;
          current_pf 0.420;
          impedance_pf -0.880;
          heat_fraction 0.67;
     };
     object ZIPload {
          schedule_skew -2502;
          base_power CLOTHESWASHER*0.4928;
          power_fraction 1.000000;
          impedance_fraction 0.000000;
          current_fraction 0.000000;
          power_pf 0.970;
          current_pf 0.970;
          impedance_pf 0.970;
          heat_fraction 0.90;
     };
     object ZIPload {
          schedule_skew -2502;
          base_power REFRIGERATOR*0.8787;
          power_fraction 1.000000;
          impedance_fraction 0.000000;
          current_fraction 0.000000;
          power_pf 0.970;
          current_pf 0.970;
          impedance_pf 0.970;
          heat_fraction 0.66;
     };
     object ZIPload {
          schedule_skew -2502;
          base_power DRYER*0.3709;
          power_fraction 0.100000;
          impedance_fraction 0.800000;
          current_fraction 0.100000;
          power_pf 0.900;
          current_pf 0.900;
          impedance_pf 1.000;
          heat_fraction 0.93;
     };
     object ZIPload {
          schedule_skew -2502;
          base_power FREEZER*0.6372;
          power_fraction 1.000000;
          impedance_fraction 0.000000;
          current_fraction 0.000000;
          power_pf 0.970;
          current_pf 0.970;
          impedance_pf 0.970;
          heat_fraction 0.85;
     };
     object ZIPload {
          schedule_skew -2502;
          base_power RANGE*0.5287;
          power_fraction 0.000000;
          impedance_fraction 1.000000;
          current_fraction 0.000000;
          power_pf 0.000;
          current_pf 0.000;
          impedance_pf 1.000;
          heat_fraction 0.74;
     };
     object ZIPload {
          schedule_skew -2502;
          base_power MICROWAVE*0.6253;
          power_fraction 1.000000;
          impedance_fraction 0.000000;
          current_fraction 0.000000;
          power_pf 0.970;
          current_pf 0.970;
          impedance_pf 0.970;
          heat_fraction 0.83;
     };
}

object triplex_line {
     from F1_triplex_node_A;
     to F1_tpm_flatrate_A7;
     groupid F1_Triplex_Line;
     phases AS;
     length 10;
     configuration TLCFG;
}

object triplex_meter {
     nominal_voltage 124;
     phases AS;
     name F1_tpm_flatrate_A7;
     groupid F1_flatrate_meter;
}

object triplex_meter {
     nominal_voltage 124;
     phases AS;
     name F1_tpm_rt_A7;
     groupid F1_rt_meter;
     parent F1_tpm_flatrate_A7;
}

object house {
     name H_7;
     //Residential_5
     parent F1_tpm_rt_A7;
     schedule_skew -853;
     Rroof 17.85;
     Rwall 5.35;
     Rfloor 5.40;
     Rdoors 3;
     Rwindows 1.62;
     airchange_per_hour 1.42;
     hvac_power_factor 0.97;
     cooling_system_type ELECTRIC;
     heating_system_type GAS;
     fan_type ONE_SPEED;
     hvac_breaker_rating 200;
     total_thermal_mass_per_floor_area 3.09;
     motor_efficiency AVERAGE;
     motor_model BASIC;
     cooling_COP 3.50;
     floor_area 758;
     number_of_doors 1;
     air_temperature 71.4;
     mass_temperature 71.4;
     heating_setpoint heating7*1.042+2.89;

     object controller {
          name C250_7;
          market Market2;
          schedule_skew -853;
          bid_mode PROXY;
          proxy_average 0.042676;
          proxy_standard_deviation 0.020000;
          proxy_market_id 1;
          proxy_clear_price 0.042676;
          proxy_price_cap 3.78;
          proxy_market_unit kW;
          proxy_initial_price 0.042676;
          // bid_delay 89;
          control_mode RAMP;
          base_setpoint cooling7*1.025+4.13;
          setpoint cooling_setpoint;
          target air_temperature;
          deadband thermostat_deadband;
          use_predictive_bidding TRUE;
          average_target current_price_mean_24h;
          standard_deviation_target current_price_stdev_24h;
          period 300;
          demand last_cooling_load;
           range_high 0.000;
           range_low 0.000;
           ramp_high 3.000;
           ramp_low 3.000;
          total total_load;
          load hvac_load;
          state power_state;
     };

     object ZIPload {
          schedule_skew -853;
          base_power LIGHTS*1.3814;
          power_fraction 0.600000;
          impedance_fraction 0.400000;
          current_fraction 0.000000;
          power_pf -0.780;
          current_pf 0.420;
          impedance_pf -0.880;
          heat_fraction 0.82;
     };
     object ZIPload {
          schedule_skew -853;
          base_power CLOTHESWASHER*0.7204;
          power_fraction 1.000000;
          impedance_fraction 0.000000;
          current_fraction 0.000000;
          power_pf 0.970;
          current_pf 0.970;
          impedance_pf 0.970;
          heat_fraction 0.71;
     };
     object ZIPload {
          schedule_skew -853;
          base_power REFRIGERATOR*0.3637;
          power_fraction 1.000000;
          impedance_fraction 0.000000;
          current_fraction 0.000000;
          power_pf 0.970;
          current_pf 0.970;
          impedance_pf 0.970;
          heat_fraction 0.69;
     };
     object ZIPload {
          schedule_skew -853;
          base_power DRYER*0.5055;
          power_fraction 0.100000;
          impedance_fraction 0.800000;
          current_fraction 0.100000;
          power_pf 0.900;
          current_pf 0.900;
          impedance_pf 1.000;
          heat_fraction 0.72;
     };
     object ZIPload {
          schedule_skew -853;
          base_power FREEZER*0.8381;
          power_fraction 1.000000;
          impedance_fraction 0.000000;
          current_fraction 0.000000;
          power_pf 0.970;
          current_pf 0.970;
          impedance_pf 0.970;
          heat_fraction 0.78;
     };
     object ZIPload {
          schedule_skew -853;
          base_power RANGE*0.9494;
          power_fraction 0.000000;