//Generated with prefix 'MarketTest'
//Contained 492 houses - [184 156 160] in Weather Region 1
//Run with mininum_timestep=60 and recorders set at 60
//Market ran with period=300, price cap=100.00, initial_price=50.00, initial_std_dev=10.00
//       and capacity reference bid=100.00 and max capacity reference quantity=0.00
//Controllers on all devices
//NR Powerflow solver

#set suppress_repeat_messages=0
#set minimum_timestep=60
#set profiler=1
#set randomseed=10
#set pauseatexit=1
#include "water_and_setpoint_schedule_v5.glm";
#include "appliance_schedules.glm";

clock {
	timezone EST+5EDT;
	starttime '2009-7-21 00:00:00';
	stoptime '2009-7-22 00:00:00';
}

module tape;
module climate;
module market;
module connection;
module residential {
	implicit_enduses NONE;
}
module powerflow {
	solver_method NR;
	NR_iteration_limit 50;
}

class auction {
	double current_price_mean_24h;
	double current_price_stdev_24h;
}

object climate {
	name "WeatherData";
	tmyfile "WA-Seattle.tmy2";
	interpolate QUADRATIC;
}

#include "Test_Feeder_Line_Configurations.glm";

object auction {
	name Market_1;
	period 300;
	unit kW;
	special_mode NONE;
	init_stdev 2000;
	price_cap 3.78;
	init_price 0.042676;
	warmup 0;
	capacity_reference_object substation_transformer;
	capacity_reference_property power_out_real;
	max_capacity_reference_bid_quantity 300;
	curve_log_file "MarketTest_market_bids.csv";
	curve_log_info EXTRA;
	object player {
        property capacity_reference_bid_price;
        //file ExamplePrices2.player;
        file AEP_RT_LMP.player;
        loop 150;
    };
	transaction_log_file "MarketTest_log.txt";
	object recorder {
         property capacity_reference_bid_price, current_market.clearing_price, current_market.clearing_quantity;
         limit 100000000;
         interval 60;
         file baseprice_clearedprice_clearedquantity.csv;
    };
}
object fncs_msg {
     name fncs_msg;
     parent Market_1;
     route "function:controller/submit_bid_state -> auction/submit_bid_state";
     option "transport:hostname localhost, port 5570";
     configure fncs_msg.txt;
}
///////////////////////////////////////////
// BEGIN: IEEE-4 Feeder - main part
///////////////////////////////////////////

object node {
	name node1;
	phases "ABCN";
	bustype SWING;
	nominal_voltage 7200;
}

object overhead_line {
	name ohl12;
	phases "ABCN";
	from node1;
	to node2;
	length 2000;
	configuration lc300;
}

object node {
	name node2;
	phases "ABCN";
	nominal_voltage 7200;
}

object transformer {
	name substation_transformer;
	phases "ABCN";
	from node2;
	to node3;
	configuration tc400;
	object recorder {
		  interval 60;
		  limit 0;
		  property power_out_real;
		  file totalload.csv;
	     };
}

object node {
	name node3;
	phases "ABCN";
	nominal_voltage 2400;
}

object overhead_line {
	name ohl34;
	phases "ABCN";
	from node3;
	to node4;
	length 2500;
	configuration lc300;
}

object node {
	name node4;
	phases "ABCN";
	nominal_voltage 2400;
}



//////////////////////////////////////////////
// BEGIN :Transformer and triplex_nodes
//////////////////////////////////////////////

//Triplex Transformers

object transformer {
	name center_tap_1;
	phases AS;
	from node4;
	to trip_node_AS;
	configuration AS_config;
}

object transformer {
	name center_tap_2;
	phases BS;
	from node4;
	to trip_node_BS;
	configuration BS_config;
}

object transformer {
	name center_tap_3;
	phases CS;
	from node4;
	to trip_node_CS;
	configuration CS_config;
}

//Triplex nodes

object triplex_node {
	name trip_node_AS;
	phases AS;
	nominal_voltage 120;
}

object triplex_node {
	name trip_node_BS;
	phases BS;
	nominal_voltage 120;
}

object triplex_node {
	name trip_node_CS;
	phases CS;
	nominal_voltage 120;
}

//Triplex meters

object triplex_meter {
	name trip_meter_AS;
	phases AS;
	nominal_voltage 120;
}

object triplex_meter {
	name trip_meter_BS;
	phases BS;
	nominal_voltage 120;
}

object triplex_meter {
	name trip_meter_CS;
	phases CS;
	nominal_voltage 120;
}

//Triplex lines

object triplex_line {
	name trip_line_AS;
	phases AS;
	from trip_node_AS;
	to trip_meter_AS;
	length 10;
	configuration triplex_line_configuration_1;
}

object triplex_line {
	name trip_line_BS;
	phases BS;
	from trip_node_BS;
	to trip_meter_BS;
	length 10;
	configuration triplex_line_configuration_1;
}

object triplex_line {
	name trip_line_CS;
	phases CS;
	from trip_node_CS;
	to trip_meter_CS;
	length 10;
	configuration triplex_line_configuration_1;
}


/////////////////////////////////////////////
//Houses
/////////////////////////////////////////////
object house {
	name house_1;
	parent trip_meter_CS;
	groupid Residential;
	schedule_skew -1076;
	floor_area 349;
	number_of_stories 1;
	ceiling_height 8;
	over_sizing_factor 0.1;
	//Thermal integrity -> Single Family 4
	Rroof 30.86;
	Rwall 14.46;
	Rfloor 22.26;
	glazing_layers 2;
	glass_type 1;
	glazing_treatment 1;
	window_frame 2;
	Rdoors 2.43;
	Rwindows 1.81;
	airchange_per_hour 0.42;
	cooling_COP 3.3;
	air_temperature 69.73;
	mass_temperature 69.73;
	total_thermal_mass_per_floor_area 2.735;
	heating_system_type RESISTANCE;
	cooling_system_type NONE;
	breaker_amps 1000;
	hvac_breaker_rating 1000;
	hvac_power_factor 0.97;
	fan_type ONE_SPEED;
	number_of_doors 2;
	thermostat_deadband 0.001;
	dlc_offset 100;
	cooling_setpoint 68.40;
	heating_setpoint 65.40;
	object controller {

 	 name HOUSE_1;
	 proxy_average 0.042676;
	 proxy_standard_deviation 0.020000;
	 proxy_market_id 1;
	 proxy_clear_price 0.042676;
	 proxy_price_cap 3.78;
		schedule_skew -1076;
		bid_delay 1;
		name controller_1;
		market Market_1;
		use_override ON;
		override override;
		bid_mode ON;
		control_mode RAMP;
		range_high -0.768;
		range_low -0.005;
		ramp_high -2.846;
		ramp_low -2.846;
		base_setpoint heating5*0.65+59.56;
		period 300;
		average_target current_price_mean_24h;
		standard_deviation_target current_price_stdev_24h;
		target air_temperature;
		setpoint heating_setpoint;
		demand last_heating_load;
		deadband thermostat_deadband;
		total hvac_load;
		load hvac_load;
		state power_state;
	};
	object ZIPload {
		// Unresponsive load
		name house_1_unresp_load;
		schedule_skew -1076;
		base_power unresponsive_loads*0.58;
		heatgain_fraction 0.900;
		power_pf 1.000;
		current_pf 1.000;
		impedance_pf 1.000;
		impedance_fraction 0.200000;
		current_fraction 0.400000;
		power_fraction 0.400000;
	};
	object waterheater {
		schedule_skew 6601;
		heating_element_capacity 3.5 kW;
		tank_setpoint 126.6;
		temperature 132;
		thermostat_deadband 7.2;
		location INSIDE;
		tank_UA 2.1;
		demand large_6*1.04;
		tank_volume 40;
	};
}

object house {
	name house_2;
	parent trip_meter_BS;
	groupid Residential;
	schedule_skew 2235;
	floor_area 369;
	number_of_stories 1;
	ceiling_height 8;
	over_sizing_factor 0.1;
	//Thermal integrity -> Mobile Home 3
	Rroof 21.54;
	Rwall 12.18;
	Rfloor 17.72;
	glazing_layers 2;
	glass_type 2;
	glazing_treatment 1;
	window_frame 2;
	Rdoors 2.62;
	Rwindows 1.81;
	airchange_per_hour 0.86;
	cooling_COP 2.6;
	air_temperature 69.59;
	mass_temperature 69.59;
	total_thermal_mass_per_floor_area 3.951;
	heating_system_type RESISTANCE;
	cooling_system_type NONE;
	breaker_amps 1000;
	hvac_breaker_rating 1000;
	hvac_power_factor 0.97;
	fan_type ONE_SPEED;
	number_of_doors 2;
	thermostat_deadband 0.001;
	dlc_offset 100;
	cooling_setpoint 83.07;
	heating_setpoint 80.07;
	object controller {

 	 name HOUSE_2;
	 proxy_average 0.042676;
	 proxy_standard_deviation 0.020000;
	 proxy_market_id 1;
	 proxy_clear_price 0.042676;
	 proxy_price_cap 3.78;
		schedule_skew 2235;
		bid_delay 1;
		name controller_2;
		market Market_1;
		use_override ON;
		override override;
		bid_mode ON;
		control_mode RAMP;
		range_high -2.890;
		range_low -0.005;
		ramp_high -2.422;
		ramp_low -2.422;
		base_setpoint heating2*1.43+71.02;
		period 300;
		average_target current_price_mean_24h;
		standard_deviation_target current_price_stdev_24h;
		target air_temperature;
		setpoint heating_setpoint;
		demand last_heating_load;
		deadband thermostat_deadband;
		total hvac_load;
		load hvac_load;
		state power_state;
	};
	object ZIPload {
		// Unresponsive load
		name house_2_unresp_load;
		schedule_skew 2235;
		base_power unresponsive_loads*0.43;
		heatgain_fraction 0.900;
		power_pf 1.000;
		current_pf 1.000;
		impedance_pf 1.000;
		impedance_fraction 0.200000;
		current_fraction 0.400000;
		power_fraction 0.400000;
	};
}

object house {
	name house_3;
	parent trip_meter_CS;
	groupid Residential;
	schedule_skew 4991;
	floor_area 3934;
	number_of_stories 1;
	ceiling_height 8;
	over_sizing_factor 0.1;
	//Thermal integrity -> Single Family 5
	Rroof 27.32;
	Rwall 18.43;
	Rfloor 19.66;
	glazing_layers 2;
	glass_type 1;
	glazing_treatment 1;
	window_frame 2;
	Rdoors 2.53;
	Rwindows 1.81;
	airchange_per_hour 0.41;
	cooling_COP 3.2;
	air_temperature 70.64;
	mass_temperature 70.64;
	total_thermal_mass_per_floor_area 2.720;
	heating_system_type RESISTANCE;
	cooling_system_type NONE;
	breaker_amps 1000;
	hvac_breaker_rating 1000;
	hvac_power_factor 0.97;
	fan_type ONE_SPEED;
	number_of_doors 2;
	thermostat_deadband 0.001;
	dlc_offset 100;
	cooling_setpoint 66.87;
	heating_setpoint 63.87;
	object controller {

 	 name HOUSE_3;
	 proxy_average 0.042676;
	 proxy_standard_deviation 0.020000;
	 proxy_market_id 1;
	 proxy_clear_price 0.042676;
	 proxy_price_cap 3.78;
		schedule_skew 4991;
		bid_delay 1;
		name controller_3;
		market Market_1;
		use_override ON;
		override override;
		bid_mode ON;
		control_mode RAMP;
		range_high -2.924;
		range_low -0.005;
		ramp_high -2.415;
		ramp_low -2.415;
		base_setpoint heating1*0.36+58.72;
		period 300;
		average_target current_price_mean_24h;
		standard_deviation_target current_price_stdev_24h;
		target air_temperature;
		setpoint heating_setpoint;
		demand last_heating_load;
		deadband thermostat_deadband;
		total hvac_load;
		load hvac_load;
		state power_state;
	};
	object ZIPload {
		// Unresponsive load
		name house_3_unresp_load;
		schedule_skew 4991;
		base_power unresponsive_loads*1.59;
		heatgain_fraction 0.900;
		power_pf 1.000;
		current_pf 1.000;
		impedance_pf 1.000;
		impedance_fraction 0.200000;
		current_fraction 0.400000;
		power_fraction 0.400000;
	};
}

object house {
	name house_4;
	parent trip_meter_AS;
	groupid Residential;
	schedule_skew 1107;
	floor_area 3820;
	number_of_stories 1;
	ceiling_height 8;
	over_sizing_factor 0.1;
	//Thermal integrity -> Apartment 3
	Rroof 27.50;
	Rwall 13.60;
	Rfloor 13.93;
	glazing_layers 2;
	glass_type 2;
	glazing_treatment 3;
	window_frame 4;
	Rdoors 6.44;
	Rwindows 1.81;
	airchange_per_hour 0.11;
	cooling_COP 3.0;
	air_temperature 68.68;
	mass_temperature 68.68;
	total_thermal_mass_per_floor_area 2.577;
	heating_system_type RESISTANCE;
	cooling_system_type NONE;
	breaker_amps 1000;
	hvac_breaker_rating 1000;
	hvac_power_factor 0.97;
	fan_type ONE_SPEED;
	number_of_doors 2;
	thermostat_deadband 0.001;
	dlc_offset 100;
	cooling_setpoint 82.78;
	heating_setpoint 79.78;
	object controller {

 	 name HOUSE_4;
	 proxy_average 0.042676;
	 proxy_standard_deviation 0.020000;
	 proxy_market_id 1;
	 proxy_clear_price 0.042676;
	 proxy_price_cap 3.78;
		schedule_skew 1107;
		bid_delay 1;
		name controller_4;
		market Market_1;
		use_override ON;
		override override;
		bid_mode ON;
		control_mode RAMP;
		range_high -2.462;
		range_low -0.005;
		ramp_high -2.508;
		ramp_low -2.508;
		base_setpoint heating5*0.35+77.21;
		period 300;
		average_target current_price_mean_24h;
		standard_deviation_target current_price_stdev_24h;
		target air_temperature;
		setpoint heating_setpoint;
		demand last_heating_load;
		deadband thermostat_deadband;
		total hvac_load;
		load hvac_load;
		state power_state;
	};
	object ZIPload {
		// Unresponsive load
		name house_4_unresp_load;
		schedule_skew 1107;
		base_power unresponsive_loads*1.44;
		heatgain_fraction 0.900;
		power_pf 1.000;
		current_pf 1.000;
		impedance_pf 1.000;
		impedance_fraction 0.200000;
		current_fraction 0.400000;
		power_fraction 0.400000;
	};
	object waterheater {
		schedule_skew -1563;
		heating_element_capacity 3.5 kW;
		tank_setpoint 125.1;
		temperature 132;
		thermostat_deadband 4.8;
		location INSIDE;
		tank_UA 2.0;
		demand large_4*0.98;
		tank_volume 60;
	};
}

object house {
	name house_5;
	parent trip_meter_AS;
	groupid Residential;
	schedule_skew 2001;
	floor_area 374;
	number_of_stories 1;
	ceiling_height 8;
	over_sizing_factor 0.1;
	//Thermal integrity -> Single Family 2
	Rroof 16.22;
	Rwall 12.33;
	Rfloor 13.53;
	glazing_layers 2;
	glass_type 1;
	glazing_treatment 1;
	window_frame 1;
	Rdoors 2.53;
	Rwindows 1.81;
	airchange_per_hour 0.61;
	cooling_COP 2.8;
	air_temperature 70.63;
	mass_temperature 70.63;
	total_thermal_mass_per_floor_area 3.947;
	heating_system_type RESISTANCE;
	cooling_system_type ELECTRIC;
	motor_model BASIC;
	motor_efficiency GOOD;
	breaker_amps 1000;
	hvac_breaker_rating 1000;
	hvac_power_factor 0.97;
	fan_type ONE_SPEED;
	number_of_doors 2;
	thermostat_deadband 0.001;
	dlc_offset 100;
	cooling_setpoint 68.99;
	heating_setpoint 65.99;
	object controller {

 	 name HOUSE_5;
	 proxy_average 0.042676;
	 proxy_standard_deviation 0.020000;
	 proxy_market_id 1;
	 proxy_clear_price 0.042676;
	 proxy_price_cap 3.78;
		schedule_skew 2001;
		bid_delay 1;
		name controller_5;
		market Market_1;
		use_override ON;
		override override;
		bid_mode ON;
		control_mode DOUBLE_RAMP;
		resolve_mode DEADBAND;
		heating_range_high -3.621;
		cooling_range_high 3.621;
		heating_range_low -0.005;
		cooling_range_low -0.005;
		heating_ramp_high -2.276;
		cooling_ramp_high 2.276;
		heating_ramp_low -2.276;
		cooling_ramp_low 2.276;
		cooling_base_setpoint cooling3*0.97+68.99;
		heating_base_setpoint heating3*0.74+60.99;
		period 300;
		average_target current_price_mean_24h;
		standard_deviation_target current_price_stdev_24h;
		target air_temperature;
		heating_setpoint heating_setpoint;
		heating_demand last_heating_load;
		cooling_setpoint cooling_setpoint;
		cooling_demand last_cooling_load;
		deadband thermostat_deadband;
		total hvac_load;
		load hvac_load;
		state power_state;
	};
	object ZIPload {
		// Unresponsive load
		name house_5_unresp_load;
		schedule_skew 2001;
		base_power unresponsive_loads*0.45;
		heatgain_fraction 0.900;
		power_pf 1.000;
		current_pf 1.000;
		impedance_pf 1.000;
		impedance_fraction 0.200000;
		current_fraction 0.400000;
		power_fraction 0.400000;
	};
	object ZIPload {
		name house_5_ppump;
		// Pool Pump
		schedule_skew -533985;
		base_power pool_pump_season*1.60;
		duty_cycle 0.45;
		phase 0.53;
		period 4.88;
		heatgain_fraction 0.0;
		power_pf 1.000;
		current_pf 1.000;
		impedance_pf 1.000;
		impedance_fraction 0.200000;
		current_fraction 0.400000;
		power_fraction 0.400000;
		is_240 TRUE;
	};
	object waterheater {
		schedule_skew 2457;
		heating_element_capacity 5.5 kW;
		tank_setpoint 125.7;
		temperature 132;
		thermostat_deadband 4.9;
		location INSIDE;
		tank_UA 2.7;
		demand small_1*1.05;
		tank_volume 40;
	};
}

object house {
	name house_6;
	parent trip_meter_AS;
	groupid Residential;
	schedule_skew -1595;
	floor_area 326;
	number_of_stories 1;
	ceiling_height 8;
	over_sizing_factor 0.1;
	//Thermal integrity -> Apartment 3
	Rroof 23.67;
	Rwall 13.35;
	Rfloor 12.80;
	glazing_layers 2;
	glass_type 2;
	glazing_treatment 3;
	window_frame 4;
	Rdoors 5.22;
	Rwindows 1.81;
	airchange_per_hour 0.14;
	cooling_COP 2.3;
	air_temperature 69.84;
	mass_temperature 69.84;
	total_thermal_mass_per_floor_area 3.071;
	heating_system_type RESISTANCE;
	cooling_system_type ELECTRIC;
	motor_model BASIC;
	motor_efficiency GOOD;
	breaker_amps 1000;
	hvac_breaker_rating 1000;
	hvac_power_factor 0.97;
	fan_type ONE_SPEED;
	number_of_doors 2;
	thermostat_deadband 0.001;
	dlc_offset 100;
	cooling_setpoint 78.00;
	heating_setpoint 75.00;
	object controller {

 	 name HOUSE_6;
	 proxy_average 0.042676;
	 proxy_standard_deviation 0.020000;
	 proxy_market_id 1;
	 proxy_clear_price 0.042676;
	 proxy_price_cap 3.78;
		schedule_skew -1595;
		bid_delay 1;
		name controller_6;
		market Market_1;
		use_override ON;
		override override;
		bid_mode ON;
		control_mode DOUBLE_RAMP;
		resolve_mode DEADBAND;
		heating_range_high -1.657;
		cooling_range_high 1.657;
		heating_range_low -0.005;
		cooling_range_low -0.005;
		heating_ramp_high -2.669;
		cooling_ramp_high 2.669;
		heating_ramp_low -2.669;
		cooling_ramp_low 2.669;
		cooling_base_setpoint cooling2*0.66+78.00;
		heating_base_setpoint heating1*0.06+58.43;
		period 300;
		average_target current_price_mean_24h;
		standard_deviation_target current_price_stdev_24h;
		target air_temperature;
		heating_setpoint heating_setpoint;
		heating_demand last_heating_load;
		cooling_setpoint cooling_setpoint;
		cooling_demand last_cooling_load;
		deadband thermostat_deadband;
		total hvac_load;
		load hvac_load;
		state power_state;
	};
	object ZIPload {
		// Unresponsive load
		name house_6_unresp_load;
		schedule_skew -1595;
		base_power unresponsive_loads*0.47;
		heatgain_fraction 0.900;
		power_pf 1.000;
		current_pf 1.000;
		impedance_pf 1.000;
		impedance_fraction 0.200000;
		current_fraction 0.400000;
		power_fraction 0.400000;
	};
	object waterheater {
		schedule_skew -11178;
		heating_element_capacity 5.5 kW;
		tank_setpoint 130.3;
		temperature 132;
		thermostat_deadband 6.7;
		location INSIDE;
		tank_UA 2.6;
		demand large_6*1.00;
		tank_volume 40;
	};
}

object house {
	name house_7;
	parent trip_meter_AS;
	groupid Residential;
	schedule_skew -4683;
	floor_area 3979;
	number_of_stories 1;
	ceiling_height 8;
	over_sizing_factor 0.1;
	//Thermal integrity -> Single Family 7
	Rroof 50.61;
	Rwall 33.22;
	Rfloor 32.04;
	glazing_layers 3;
	glass_type 2;
	glazing_treatment 2;
	window_frame 4;
	Rdoors 12.32;
	Rwindows 1.81;
	airchange_per_hour 0.23;
	cooling_COP 3.5;
	air_temperature 69.74;
	mass_temperature 69.74;
	total_thermal_mass_per_floor_area 3.469;
	heating_system_type RESISTANCE;
	cooling_system_type NONE;
	breaker_amps 1000;
	hvac_breaker_rating 1000;
	hvac_power_factor 0.97;
	fan_type ONE_SPEED;
	number_of_doors 2;
	thermostat_deadband 0.001;
	dlc_offset 100;
	cooling_setpoint 72.98;
	heating_setpoint 69.98;
	object controller {

 	 name HOUSE_7;
	 proxy_average 0.042676;
	 proxy_standard_deviation 0.020000;
	 proxy_market_id 1;
	 proxy_clear_price 0.042676;
	 proxy_price_cap 3.78;
		schedule_skew -4683;
		bid_delay 1;
		name controller_7;
		market Market_1;
		use_override ON;
		override override;
		bid_mode ON;
		control_mode RAMP;
		range_high -1.365;
		range_low -0.005;
		ramp_high -2.727;
		ramp_low -2.727;
		base_setpoint heating4*0.95+66.12;
		period 300;
		average_target current_price_mean_24h;
		standard_deviation_target current_price_stdev_24h;
		target air_temperature;
		setpoint heating_setpoint;
		demand last_heating_load;
		deadband thermostat_deadband;
		total hvac_load;
		load hvac_load;
		state power_state;
	};
	object ZIPload {
		// Unresponsive load
		name house_7_unresp_load;
		schedule_skew -4683;
		base_power unresponsive_loads*1.20;
		heatgain_fraction 0.900;
		power_pf 1.000;
		current_pf 1.000;
		impedance_pf 1.000;
		impedance_fraction 0.200000;
		current_fraction 0.400000;
		power_fraction 0.400000;
	};
	object waterheater {
		schedule_skew 1860;
		heating_element_capacity 4.5 kW;
		tank_setpoint 124.3;
		temperature 132;
		thermostat_deadband 4.0;
		location INSIDE;
		tank_UA 3.3;
		demand large_4*1.00;
		tank_volume 60;
	};
}

object house {
	name house_8;
	parent trip_meter_CS;
	groupid Residential;
	schedule_skew 3368;
	floor_area 383;
	number_of_stories 1;
	ceiling_height 9;
	over_sizing_factor 0.1;
	//Thermal integrity -> Single Family 1
	Rroof 18.77;
	Rwall 11.85;
	Rfloor 10.23;
	glazing_layers 1;
	glass_type 1;
	glazing_treatment 1;
	window_frame 1;
	Rdoors 3.29;
	Rwindows 1.81;
	airchange_per_hour 0.87;
	cooling_COP 2.4;
	air_temperature 70.11;
	mass_temperature 70.11;
	total_thermal_mass_per_floor_area 3.594;
	heating_system_type RESISTANCE;
	cooling_system_type NONE;
	breaker_amps 1000;
	hvac_breaker_rating 1000;
	hvac_power_factor 0.97;
	fan_type ONE_SPEED;
	number_of_doors 2;
	thermostat_deadband 0.001;
	dlc_offset 100;
	cooling_setpoint 78.61;
	heating_setpoint 75.61;
	object controller {

 	 name HOUSE_8;
	 proxy_average 0.042676;
	 proxy_standard_deviation 0.020000;
	 proxy_market_id 1;
	 proxy_clear_price 0.042676;
	 proxy_price_cap 3.78;
		schedule_skew 3368;
		bid_delay 1;
		name controller_8;
		market Market_1;
		use_override ON;
		override override;
		bid_mode ON;
		control_mode RAMP;
		range_high -2.294;
		range_low -0.005;
		ramp_high -2.541;
		ramp_low -2.541;
		base_setpoint heating6*0.52+64.10;
		period 300;
		average_target current_price_mean_24h;
		standard_deviation_target current_price_stdev_24h;
		target air_temperature;
		setpoint heating_setpoint;
		demand last_heating_load;
		deadband thermostat_deadband;
		total hvac_load;
		load hvac_load;
		state power_state;
	};
	object ZIPload {
		// Unresponsive load
		name house_8_unresp_load;
		schedule_skew 3368;
		base_power unresponsive_loads*0.43;
		heatgain_fraction 0.900;
		power_pf 1.000;
		current_pf 1.000;
		impedance_pf 1.000;
		impedance_fraction 0.200000;
		current_fraction 0.400000;
		power_fraction 0.400000;
	};
	object waterheater {
		schedule_skew 9913;
		heating_element_capacity 4.0 kW;
		tank_setpoint 131.4;
		temperature 132;
		thermostat_deadband 5.0;
		location INSIDE;
		tank_UA 3.1;
		demand large_6*1.01;
		tank_volume 30;
	};
}

object house {
	name house_9;
	parent trip_meter_AS;
	groupid Residential;
	schedule_skew -5429;
	floor_area 3825;
	number_of_stories 1;
	ceiling_height 8;
	over_sizing_factor 0.1;
	//Thermal integrity -> Apartment 3
	Rroof 29.24;
	Rwall 16.29;
	Rfloor 10.80;
	glazing_layers 2;
	glass_type 2;
	glazing_treatment 3;
	window_frame 4;
	Rdoors 6.66;
	Rwindows 1.81;
	airchange_per_hour 0.14;
	cooling_COP 2.9;
	air_temperature 70.99;
	mass_temperature 70.99;
	total_thermal_mass_per_floor_area 3.430;
	heating_system_type RESISTANCE;
	cooling_system_type ELECTRIC;
	motor_model BASIC;
	motor_efficiency GOOD;
	breaker_amps 1000;
	hvac_breaker_rating 1000;
	hvac_power_factor 0.97;
	fan_type ONE_SPEED;
	number_of_doors 2;
	thermostat_deadband 0.001;
	dlc_offset 100;
	cooling_setpoint 73.22;
	heating_setpoint 70.22;
	object controller {

 	 name HOUSE_9;
	 proxy_average 0.042676;
	 proxy_standard_deviation 0.020000;
	 proxy_market_id 1;
	 proxy_clear_price 0.042676;
	 proxy_price_cap 3.78;
		schedule_skew -5429;
		bid_delay 1;
		name controller_9;
		market Market_1;
		use_override ON;
		override override;
		bid_mode ON;
		control_mode DOUBLE_RAMP;
		resolve_mode DEADBAND;
		heating_range_high -2.986;
		cooling_range_high 2.986;
		heating_range_low -0.005;
		cooling_range_low -0.005;
		heating_ramp_high -2.403;
		cooling_ramp_high 2.403;
		heating_ramp_low -2.403;
		cooling_ramp_low 2.403;
		cooling_base_setpoint cooling7*0.51+73.22;
		heating_base_setpoint heating4*0.21+66.99;
		period 300;
		average_target current_price_mean_24h;
		standard_deviation_target current_price_stdev_24h;
		target air_temperature;
		heating_setpoint heating_setpoint;
		heating_demand last_heating_load;
		cooling_setpoint cooling_setpoint;
		cooling_demand last_cooling_load;
		deadband thermostat_deadband;
		total hvac_load;
		load hvac_load;
		state power_state;
	};
	object ZIPload {
		// Unresponsive load
		name house_9_unresp_load;
		schedule_skew -5429;
		base_power unresponsive_loads*1.29;
		heatgain_fraction 0.900;
		power_pf 1.000;
		current_pf 1.000;
		impedance_pf 1.000;
		impedance_fraction 0.200000;
		current_fraction 0.400000;
		power_fraction 0.400000;
	};
	object waterheater {
		schedule_skew 9673;
		heating_element_capacity 3.5 kW;
		tank_setpoint 129.1;
		temperature 132;
		thermostat_deadband 5.2;
		location INSIDE;
		tank_UA 2.5;
		demand large_4*1.04;
		tank_volume 30;
	};
}

object house {
	name house_10;
	parent trip_meter_AS;
	groupid Residential;
	schedule_skew 757;
	floor_area 3983;
	number_of_stories 1;
	ceiling_height 8;
	over_sizing_factor 0.1;
	//Thermal integrity -> Single Family 2
	Rroof 17.12;
	Rwall 12.14;
	Rfloor 11.38;
	glazing_layers 2;
	glass_type 1;
	glazing_treatment 1;
	window_frame 1;
	Rdoors 2.63;
	Rwindows 1.81;
	airchange_per_hour 0.80;
	cooling_COP 2.7;
	air_temperature 70.95;
	mass_temperature 70.95;
	total_thermal_mass_per_floor_area 3.500;
	heating_system_type RESISTANCE;
	cooling_system_type ELECTRIC;
	motor_model BASIC;
	motor_efficiency GOOD;
	breaker_amps 1000;
	hvac_breaker_rating 1000;
	hvac_power_factor 0.97;
	fan_type ONE_SPEED;
	number_of_doors 2;
	thermostat_deadband 0.001;
	dlc_offset 100;
	cooling_setpoint 75.36;
	heating_setpoint 72.36;
	object controller {

 	 name HOUSE_10;
	 proxy_average 0.042676;
	 proxy_standard_deviation 0.020000;
	 proxy_market_id 1;
	 proxy_clear_price 0.042676;
	 proxy_price_cap 3.78;
		schedule_skew 757;
		bid_delay 1;
		name controller_10;
		market Market_1;
		use_override ON;
		override override;
		bid_mode ON;
		control_mode DOUBLE_RAMP;
		resolve_mode DEADBAND;
		heating_range_high -2.760;
		cooling_range_high 2.760;
		heating_range_low -0.005;
		cooling_range_low -0.005;
		heating_ramp_high -2.448;
		cooling_ramp_high 2.448;
		heating_ramp_low -2.448;
		cooling_ramp_low 2.448;
		cooling_base_setpoint cooling4*0.88+75.36;
		heating_base_setpoint heating3*1.24+69.00;
		period 300;
		average_target current_price_mean_24h;
		standard_deviation_target current_price_stdev_24h;
		target air_temperature;
		heating_setpoint heating_setpoint;
		heating_demand last_heating_load;
		cooling_setpoint cooling_setpoint;
		cooling_demand last_cooling_load;
		deadband thermostat_deadband;
		total hvac_load;
		load hvac_load;
		state power_state;
	};
	object ZIPload {
		// Unresponsive load
		name house_10_unresp_load;
		schedule_skew 757;
		base_power unresponsive_loads*1.65;
		heatgain_fraction 0.900;
		power_pf 1.000;
		current_pf 1.000;
		impedance_pf 1.000;
		impedance_fraction 0.200000;
		current_fraction 0.400000;
		power_fraction 0.400000;
	};
}

object house {
	name house_11;
	parent trip_meter_BS;
	groupid Residential;
	schedule_skew 885;
	floor_area 320;
	number_of_stories 1;
	ceiling_height 8;
	over_sizing_factor 0.1;
	//Thermal integrity -> Apartment 3
	Rroof 27.90;
	Rwall 15.92;
	Rfloor 14.18;
	glazing_layers 2;
	glass_type 2;
	glazing_treatment 3;
	window_frame 4;
	Rdoors 7.36;
	Rwindows 1.81;
	airchange_per_hour 0.12;
	cooling_COP 3.0;
	air_temperature 68.12;
	mass_temperature 68.12;
	total_thermal_mass_per_floor_area 2.903;
	heating_system_type RESISTANCE;
	cooling_system_type NONE;
	breaker_amps 1000;
	hvac_breaker_rating 1000;
	hvac_power_factor 0.97;
	fan_type ONE_SPEED;
	number_of_doors 2;
	thermostat_deadband 0.001;
	dlc_offset 100;
	cooling_setpoint 72.46;
	heating_setpoint 69.46;
	object controller {

 	 name HOUSE_11;
	 proxy_average 0.042676;
	 proxy_standard_deviation 0.020000;
	 proxy_market_id 1;
	 proxy_clear_price 0.042676;
	 proxy_price_cap 3.78;
		schedule_skew 885;
		bid_delay 1;
		name controller_11;
		market Market_1;
		use_override ON;
		override override;
		bid_mode ON;
		control_mode RAMP;
		range_high -1.681;
		range_low -0.005;
		ramp_high -2.664;
		ramp_low -2.664;
		base_setpoint heating6*0.31+67.02;
		period 300;
		average_target current_price_mean_24h;
		standard_deviation_target current_price_stdev_24h;
		target air_temperature;
		setpoint heating_setpoint;
		demand last_heating_load;
		deadband thermostat_deadband;
		total hvac_load;
		load hvac_load;
		state power_state;
	};
	object ZIPload {
		// Unresponsive load
		name house_11_unresp_load;
		schedule_skew 885;
		base_power unresponsive_loads*0.52;
		heatgain_fraction 0.900;
		power_pf 1.000;
		current_pf 1.000;
		impedance_pf 1.000;
		impedance_fraction 0.200000;
		current_fraction 0.400000;
		power_fraction 0.400000;
	};
}

object house {
	name house_12;
	parent trip_meter_BS;
	groupid Residential;
	schedule_skew -4179;
	floor_area 380;
	number_of_stories 1;
	ceiling_height 8;
	over_sizing_factor 0.1;
	//Thermal integrity -> Apartment 3
	Rroof 25.51;
	Rwall 13.07;
	Rfloor 10.81;
	glazing_layers 2;
	glass_type 2;
	glazing_treatment 3;
	window_frame 4;
	Rdoors 7.48;
	Rwindows 1.81;
	airchange_per_hour 0.11;
	cooling_COP 2.4;
	air_temperature 71.44;
	mass_temperature 71.44;
	total_thermal_mass_per_floor_area 2.877;
	heating_system_type RESISTANCE;
	cooling_system_type ELECTRIC;
	motor_model BASIC;
	motor_efficiency GOOD;
	breaker_amps 1000;
	hvac_breaker_rating 1000;
	hvac_power_factor 0.97;
	fan_type ONE_SPEED;
	number_of_doors 2;
	thermostat_deadband 0.001;
	dlc_offset 100;
	cooling_setpoint 68.47;
	heating_setpoint 65.47;
	object controller {

 	 name HOUSE_12;
	 proxy_average 0.042676;
	 proxy_standard_deviation 0.020000;
	 proxy_market_id 1;
	 proxy_clear_price 0.042676;
	 proxy_price_cap 3.78;
		schedule_skew -4179;
		bid_delay 1;
		name controller_12;
		market Market_1;
		use_override ON;
		override override;
		bid_mode ON;
		control_mode DOUBLE_RAMP;
		resolve_mode DEADBAND;
		heating_range_high -1.610;
		cooling_range_high 1.610;
		heating_range_low -0.005;
		cooling_range_low -0.005;
		heating_ramp_high -2.678;
		cooling_ramp_high 2.678;
		heating_ramp_low -2.678;
		cooling_ramp_low 2.678;
		cooling_base_setpoint cooling3*0.78+68.47;
		heating_base_setpoint heating5*0.06+59.92;
		period 300;
		average_target current_price_mean_24h;
		standard_deviation_target current_price_stdev_24h;
		target air_temperature;
		heating_setpoint heating_setpoint;
		heating_demand last_heating_load;
		cooling_setpoint cooling_setpoint;
		cooling_demand last_cooling_load;
		deadband thermostat_deadband;
		total hvac_load;
		load hvac_load;
		state power_state;
	};
	object ZIPload {
		// Unresponsive load
		name house_12_unresp_load;
		schedule_skew -4179;
		base_power unresponsive_loads*0.45;
		heatgain_fraction 0.900;
		power_pf 1.000;
		current_pf 1.000;
		impedance_pf 1.000;
		impedance_fraction 0.200000;